[Format]      =  4.0
[Frequency]   =  0
[Precision]   =  1e-008
[MinAngle]    =  20
[DoSmartMesh] =  1
[Depth]       =  37.5
[LengthUnits] =  millimeters
[ProblemType] =  planar
[Coordinates] =  cartesian
[ACSolver]    =  0
[PrevType]    =  0
[PrevSoln]    =  ""
[Comment]     =  "Add comments here."
[PointProps]   = 0
[BdryProps]   = 1
  <BeginBdry>
    <BdryName> = "Boundary"
    <BdryType> = 0
    <A_0> = 0
    <A_1> = 0
    <A_2> = 0
    <Phi> = 0
    <c0> = 0
    <c0i> = 0
    <c1> = 0
    <c1i> = 0
    <Mu_ssd> = 0
    <Sigma_ssd> = 0
    <innerangle> = 0
    <outerangle> = 0
  <EndBdry>
[BlockProps]  = 5
  <BeginBlock>
    <BlockName> = "N52"
    <Mu_x> = 1.05
    <Mu_y> = 1.05
    <H_c> = 956180
    <H_cAngle> = 0
    <J_re> = 0
    <J_im> = 0
    <Sigma> = 0.66700000000000004
    <d_lam> = 0
    <Phi_h> = 0
    <Phi_hx> = 0
    <Phi_hy> = 0
    <LamType> = 0
    <LamFill> = 1
    <NStrands> = 0
    <WireD> = 0
    <BHPoints> = 8
      0	0
      0.073200000000000001	7484
      0.1464	18446
      0.2195	37084
      0.29270000000000002	72766
      0.3659	124571
      0.43909999999999999	179757
      1.4636	956180
  <EndBlock>
  <BeginBlock>
    <BlockName> = "Air"
    <Mu_x> = 1
    <Mu_y> = 1
    <H_c> = 0
    <H_cAngle> = 0
    <J_re> = 0
    <J_im> = 0
    <Sigma> = 0
    <d_lam> = 0
    <Phi_h> = 0
    <Phi_hx> = 0
    <Phi_hy> = 0
    <LamType> = 0
    <LamFill> = 1
    <NStrands> = 0
    <WireD> = 0
    <BHPoints> = 0
  <EndBlock>
  <BeginBlock>
    <BlockName> = "M-15 Steel"
    <Mu_x> = 1
    <Mu_y> = 1
    <H_c> = 0
    <H_cAngle> = 0
    <J_re> = 0
    <J_im> = 0
    <Sigma> = 1.8999999999999999
    <d_lam> = 0.63500000000000001
    <Phi_h> = 0
    <Phi_hx> = 0
    <Phi_hy> = 0
    <LamType> = 0
    <LamFill> = 0.97999999999999998
    <NStrands> = 0
    <WireD> = 0
    <BHPoints> = 47
      0	0
      0.050000000000000003	15.120714
      0.10000000000000001	22.718292000000002
      0.14999999999999999	27.842732999999999
      0.20000000000000001	31.871434000000001
      0.25	35.365043999999997
      0.29999999999999999	38.600588000000002
      0.34999999999999998	41.736201999999999
      0.40000000000000002	44.873978999999999
      0.45000000000000001	48.087806999999998
      0.5	51.437235999999999
      0.55000000000000004	54.975220999999998
      0.59999999999999998	58.752992999999996
      0.65000000000000002	62.823644000000002
      0.69999999999999996	67.245284999999996
      0.75	72.084406000000001
      0.80000000000000004	77.420100000000005
      0.84999999999999998	83.350020999999998
      0.90000000000000002	89.999611999999999
      0.94999999999999996	97.537352999999996
      1	106.20140600000001
      1.05	116.34846400000001
      1.1000000000000001	128.54732899999999
      1.1499999999999999	143.76543100000001
      1.2	163.75416899999999
      1.25	191.86815799999999
      1.3	234.833507
      1.3500000000000001	306.50976900000001
      1.3999999999999999	435.255202
      1.45	674.911968
      1.5	1108.3255690000001
      1.55	1813.085468
      1.6000000000000001	2801.2174209999998
      1.6499999999999999	4053.6531169999998
      1.7	5591.10689
      1.75	7448.318413
      1.8	9708.81567
      1.8500000000000001	12486.931615
      1.8999999999999999	16041.483644
      1.95	21249.420623999998
      2	31313.495878000002
      2.0499999999999998	53589.446877000002
      2.1000000000000001	88477.484601000004
      2.1499999999999999	124329.41054
      2.2000000000000002	159968.5693
      2.25	197751.604272
      2.2999999999999998	234024.75134700001
  <EndBlock>
  <BeginBlock>
    <BlockName> = "24 AWG"
    <Mu_x> = 1
    <Mu_y> = 1
    <H_c> = 0
    <H_cAngle> = 0
    <J_re> = 0
    <J_im> = 0
    <Sigma> = 58
    <d_lam> = 0
    <Phi_h> = 0
    <Phi_hx> = 0
    <Phi_hy> = 0
    <LamType> = 3
    <LamFill> = 1
    <NStrands> = 1
    <WireD> = 0.510714027632857
    <BHPoints> = 0
  <EndBlock>
  <BeginBlock>
    <BlockName> = "1018 Steel"
    <Mu_x> = 529
    <Mu_y> = 529
    <H_c> = 0
    <H_cAngle> = 0
    <J_re> = 0
    <J_im> = 0
    <Sigma> = 5.7999999999999998
    <d_lam> = 0
    <Phi_h> = 20
    <Phi_hx> = 0
    <Phi_hy> = 0
    <LamType> = 0
    <LamFill> = 1
    <NStrands> = 0
    <WireD> = 0
    <BHPoints> = 13
      0	0
      0.25030000000000002	238.73249999999999
      0.92500000000000004	795.77499999999998
      1.25	1591.55
      1.3899999999999999	2387.3249999999998
      1.5249999999999999	3978.875
      1.71	7957.75
      1.8700000000000001	15915.5
      1.9550000000000001	23873.25
      2.02	39788.75
      2.1099999999999999	79577.5
      2.2250000000000001	159155
      2.4300000000000002	318310
  <EndBlock>
[CircuitProps]  = 3
  <BeginCircuit>
    <CircuitName> = "A"
    <TotalAmps_re> = 0
    <TotalAmps_im> = 0
    <CircuitType> = 1
  <EndCircuit>
  <BeginCircuit>
    <CircuitName> = "B"
    <TotalAmps_re> = 0
    <TotalAmps_im> = 0
    <CircuitType> = 1
  <EndCircuit>
  <BeginCircuit>
    <CircuitName> = "C"
    <TotalAmps_re> = 0
    <TotalAmps_im> = 0
    <CircuitType> = 1
  <EndCircuit>
[NumPoints] = 186
7.5825177363691862	2.0317295040547876	0	1
-2.0317295040547876	7.5825177363691862	0	1
7.4377115975894936	2.5105669063147422	0	1
-1.5446410800256729	7.6965306426920126	0	1
9.5741847357660905	3.0830331583399477	0	1
10.408030934045772	4.5271557181022803	0	1
-2.1171073320508791	9.8330037808686104	0	1
-1.2833836082583321	11.277197051309063	0	1
-7.5825177363691862	-2.0317295040547871	0	1
-2.5105669063147409	7.4377115975894945	0	1
-7.6965306426920153	-1.5446410800256727	0	1
-3.0830331583399477	9.5741847357660905	0	1
-4.5271557181022795	10.408030934045778	0	1
-9.8330037808686104	-2.1171073320508791	0	1
-11.277197051309065	-1.2833836082583305	0	1
2.0317295040547867	-7.5825177363691862	0	1
-7.4377115975894945	-2.5105669063147409	0	1
1.544641080025672	-7.6965306426920153	0	1
-9.5741847357660905	-3.0830331583399473	0	1
-10.408030934045778	-4.5271557181022786	0	1
2.1171073320508791	-9.8330037808686104	0	1
1.2833836082583299	-11.277197051309065	0	1
2.51056690631474	-7.4377115975894945	0	1
7.6965306426920153	1.5446410800256716	0	1
3.0830331583399468	-9.5741847357660905	0	1
4.5271557181022786	-10.408030934045778	0	1
9.8330037808686175	2.1171073320508782	0	1
11.277197051309065	1.2833836082583294	0	1
26.699999999999999	0	0	0
19.125336747959963	5.124596977922824	0	0
25.790226109151789	6.9104440677019809	0	0
19.722512516618451	1.75	0	0
12.701928889372958	3.4034544939205285	0	0
13.033034949753837	1.75	0	0
12.15	0	0	0
11.907732338905801	2.4142101285881998	0	0
12.875360116984	2.6734859859346001	0	0
19.125336747959963	-5.124596977922824	0	0
25.790226109151789	-6.9104440677019809	0	0
19.722512516618451	-1.75	0	0
12.701928889372958	-3.4034544939205285	0	0
13.033034949753837	-1.75	0	0
11.907732338905801	-2.4142101285881998	0	0
12.875360116984	-2.6734859859346001	0	0
23.122878281044514	13.349999999999998	0	0
14.000728990703978	14.000699541018108	0	0
18.879768946019162	18.87973316863728	0	0
16.205196865848141	11.376800714931992	0	0
9.2984658483001787	9.2984424970459667	0	0
10.411939354897269	8.0320619314996851	0	0
10.522208655980931	6.0749999999999993	0	0
9.1052936426638151	8.0446334708839764	0	0
9.8136459512138252	8.7529868389730492	0	0
17.955196865848141	8.3457118016864555	0	0
12.161939354897269	5.0009730182541503	0	0
11.519503771252014	3.8630988680218219	0	0
12.487131937148426	4.122373278010949	0	0
13.350000000000003	23.12287828104451	0	0
5.1246372069418555	19.125325968626804	0	0
6.9104929405145112	25.790213013721139	0	0
8.3457118016864591	17.955196865848137	0	0
3.4034863923269931	12.701920342220706	0	0
5.000973018254153	12.161939354897267	0	0
6.075000000000002	10.522208655980929	0	0
3.8630988680218241	11.519503771252012	0	0
4.1223732780109517	12.487131937148426	0	0
11.376800714931996	16.205196865848137	0	0
8.0320619314996886	10.411939354897267	0	0
8.0446334708839782	9.1052936426638134	0	0
8.752986838973051	9.8136459512138252	0	0
1.6349034768617164e-015	26.699999999999999	0	0
-5.1245969779228231	19.125336747959963	0	0
-6.9104440677019792	25.790226109151789	0	0
-1.7499999999999989	19.722512516618451	0	0
-3.4034544939205276	12.701928889372958	0	0
-1.7499999999999991	13.033034949753837	0	0
7.4397293048201709e-016	12.15	0	0
-2.4142101285881989	11.907732338905801	0	0
-2.6734859859345992	12.875360116984	0	0
1.7500000000000011	19.722512516618451	0	0
1.7500000000000009	13.033034949753837	0	0
2.4142101285882007	11.907732338905801	0	0
2.673485985934601	12.875360116984	0	0
-13.349999999999994	23.122878281044514	0	0
-14.000699541018106	14.00072899070398	0	0
-18.879733168637276	18.879768946019162	0	0
-11.37680071493199	16.205196865848141	0	0
-9.2984424970459649	9.2984658483001787	0	0
-8.0320619314996833	10.411939354897269	0	0
-6.0749999999999975	10.522208655980931	0	0
-8.0446334708839746	9.1052936426638151	0	0
-8.7529868389730474	9.813645951213827	0	0
-8.3457118016864538	17.955196865848141	0	0
-5.0009730182541485	12.161939354897269	0	0
-3.8630988680218201	11.519503771252014	0	0
-4.1223732780109472	12.487131937148424	0	0
-23.122878281044514	13.349999999999998	0	0
-19.1253259686268	5.124637206941852	0	0
-25.790213013721143	6.910492940514505	0	0
-17.955196865848141	8.3457118016864555	0	0
-12.701920342220706	3.40348639232699	0	0
-12.161939354897269	5.0009730182541503	0	0
-10.522208655980931	6.0749999999999993	0	0
-11.519503771252014	3.8630988680218219	0	0
-12.487131937148426	4.122373278010949	0	0
-16.205196865848141	11.376800714931992	0	0
-10.411939354897269	8.0320619314996851	0	0
-9.1052936426638151	8.0446334708839764	0	0
-9.8136459512138252	8.7529868389730492	0	0
-26.699999999999999	3.2698069537234329e-015	0	0
-19.125336747959963	-5.1245969779228213	0	0
-25.790226109151789	-6.9104440677019774	0	0
-19.722512516618451	-1.7499999999999976	0	0
-12.701928889372958	-3.4034544939205267	0	0
-13.033034949753837	-1.7499999999999984	0	0
-12.15	1.4879458609640342e-015	0	0
-11.907732338905801	-2.4142101285881985	0	0
-12.875360116984	-2.6734859859345983	0	0
-19.722512516618451	1.7500000000000024	0	0
-13.033034949753837	1.7500000000000016	0	0
-11.907732338905801	2.4142101285882012	0	0
-12.875360116984	2.6734859859346018	0	0
-23.12287828104451	-13.350000000000003	0	0
-14.000728990703978	-14.000699541018111	0	0
-18.879768946019158	-18.879733168637284	0	0
-16.205196865848137	-11.376800714931996	0	0
-9.2984658483001787	-9.2984424970459685	0	0
-10.411939354897267	-8.0320619314996886	0	0
-10.522208655980929	-6.075000000000002	0	0
-9.1052936426638134	-8.0446334708839782	0	0
-9.8136459512138252	-8.752986838973051	0	0
-17.955196865848137	-8.3457118016864591	0	0
-12.161939354897267	-5.000973018254153	0	0
-11.519503771252012	-3.8630988680218241	0	0
-12.487131937148426	-4.1223732780109517	0	0
-13.350000000000012	-23.122878281044503	0	0
-5.1246372069418644	-19.125325968626797	0	0
-6.9104929405145201	-25.790213013721136	0	0
-8.345711801686468	-17.955196865848134	0	0
-3.4034863923269971	-12.701920342220705	0	0
-5.0009730182541574	-12.161939354897264	0	0
-6.0750000000000055	-10.522208655980927	0	0
-3.863098868021829	-11.519503771252012	0	0
-4.1223732780109561	-12.487131937148423	0	0
-11.376800714932001	-16.205196865848134	0	0
-8.0320619314996922	-10.411939354897264	0	0
-8.0446334708839817	-9.1052936426638098	0	0
-8.7529868389730545	-9.8136459512138217	0	0
-4.9047104305851493e-015	-26.699999999999999	0	0
5.1245969779228204	-19.125336747959963	0	0
6.9104440677019765	-25.790226109151789	0	0
1.7499999999999964	-19.722512516618451	0	0
3.4034544939205262	-12.701928889372958	0	0
1.7499999999999976	-13.033034949753837	0	0
-2.2319187914460511e-015	-12.15	0	0
2.4142101285881976	-11.907732338905801	0	0
2.6734859859345979	-12.875360116984	0	0
-1.7500000000000036	-19.722512516618451	0	0
-1.7500000000000024	-13.033034949753837	0	0
-2.4142101285882021	-11.907732338905801	0	0
-2.6734859859346023	-12.875360116984	0	0
13.350000000000003	-23.12287828104451	0	0
14.000699541018111	-14.000728990703978	0	0
18.879733168637284	-18.879768946019158	0	0
11.376800714931996	-16.205196865848137	0	0
9.2984424970459685	-9.2984658483001787	0	0
8.0320619314996886	-10.411939354897267	0	0
6.075000000000002	-10.522208655980929	0	0
8.0446334708839782	-9.1052936426638134	0	0
8.752986838973051	-9.8136459512138252	0	0
8.3457118016864591	-17.955196865848137	0	0
5.000973018254153	-12.161939354897267	0	0
3.8630988680218241	-11.519503771252012	0	0
4.1223732780109517	-12.487131937148426	0	0
23.122878281044503	-13.350000000000012	0	0
17.955196865848134	-8.345711801686468	0	0
12.161939354897264	-5.0009730182541574	0	0
10.522208655980927	-6.0750000000000055	0	0
11.519503771252012	-3.863098868021829	0	0
12.487131937148423	-4.1223732780109561	0	0
16.205196865848134	-11.376800714932001	0	0
10.411939354897264	-8.0320619314996922	0	0
9.1052936426638098	-8.0446334708839817	0	0
9.8136459512138217	-8.7529868389730545	0	0
32	0	0	0
-32	0	0	0
[NumSegments] = 64
2	4	-1	0	0	1
3	6	-1	0	0	1
5	4	-1	0	0	1
6	7	-1	0	0	1
9	11	-1	0	0	1
10	13	-1	0	0	1
12	11	-1	0	0	1
13	14	-1	0	0	1
16	18	-1	0	0	1
17	20	-1	0	0	1
19	18	-1	0	0	1
20	21	-1	0	0	1
22	24	-1	0	0	1
23	26	-1	0	0	1
25	24	-1	0	0	1
26	27	-1	0	0	1
35	36	-1	0	0	0
33	31	-1	0	0	0
42	43	-1	0	0	0
41	39	-1	0	0	0
51	52	-1	0	0	0
49	47	-1	0	0	0
55	56	-1	0	0	0
54	53	-1	0	0	0
64	65	-1	0	0	0
62	60	-1	0	0	0
68	69	-1	0	0	0
67	66	-1	0	0	0
77	78	-1	0	0	0
75	73	-1	0	0	0
81	82	-1	0	0	0
80	79	-1	0	0	0
90	91	-1	0	0	0
88	86	-1	0	0	0
94	95	-1	0	0	0
93	92	-1	0	0	0
103	104	-1	0	0	0
101	99	-1	0	0	0
107	108	-1	0	0	0
106	105	-1	0	0	0
116	117	-1	0	0	0
114	112	-1	0	0	0
120	121	-1	0	0	0
119	118	-1	0	0	0
129	130	-1	0	0	0
127	125	-1	0	0	0
133	134	-1	0	0	0
132	131	-1	0	0	0
142	143	-1	0	0	0
140	138	-1	0	0	0
146	147	-1	0	0	0
145	144	-1	0	0	0
155	156	-1	0	0	0
153	151	-1	0	0	0
159	160	-1	0	0	0
158	157	-1	0	0	0
168	169	-1	0	0	0
166	164	-1	0	0	0
172	173	-1	0	0	0
171	170	-1	0	0	0
178	179	-1	0	0	0
176	175	-1	0	0	0
182	183	-1	0	0	0
181	180	-1	0	0	0
[NumArcSegments] = 138
5	7	72.985043641489767	1	0	0	1	1
0	2	3.6518848103762465	1	0	0	1	1
2	3	82.696230379247496	1	0	0	1	1
3	1	3.6518848103762478	1	0	0	1	1
12	14	72.985043641489767	1	0	0	1	1
1	9	3.6518848103762465	1	0	0	1	1
9	10	82.696230379247496	1	0	0	1	1
10	8	3.6518848103762478	1	0	0	1	1
19	21	72.985043641489767	1	0	0	1	1
8	16	3.6518848103762465	1	0	0	1	1
16	17	82.696230379247496	1	0	0	1	1
17	15	3.6518848103762478	1	0	0	1	1
25	27	72.985043641489767	1	0	0	1	1
15	22	3.6518848103762465	1	0	0	1	1
22	23	82.696230379247496	1	0	0	1	1
23	0	3.6518848103762478	1	0	0	1	1
28	30	14.999945711431488	1	0	0	0	1
31	29	9.9293024327184813	1	0	0	0	1
33	36	4.0828067702278021	1	0	0	0	1
34	35	11.460973543583632	1	0	0	0	1
36	32	3.2695198648920627	1	0	0	0	1
38	28	14.999945711431488	1	0	0	0	1
37	39	9.9293024327184813	1	0	0	0	1
43	41	4.0828067702278021	1	0	0	0	1
42	34	11.460973543583632	1	0	0	0	1
40	43	3.2695198648920627	1	0	0	0	1
44	46	14.999945711431488	1	0	0	0	1
47	45	9.9293024327184813	1	0	0	0	1
49	52	4.0828067702278021	1	0	0	0	1
50	51	11.460973543583632	1	0	0	0	1
52	48	3.2695198648920627	1	0	0	0	1
30	44	14.999945711431488	1	0	0	0	1
29	53	9.9293024327184813	1	0	0	0	1
56	54	4.0828067702278021	1	0	0	0	1
55	50	11.460973543583632	1	0	0	0	1
32	56	3.2695198648920627	1	0	0	0	1
57	59	14.999945711431488	1	0	0	0	1
60	58	9.9293024327184813	1	0	0	0	1
62	65	4.0828067702278021	1	0	0	0	1
63	64	11.460973543583632	1	0	0	0	1
65	61	3.2695198648920627	1	0	0	0	1
46	57	14.999945711431488	1	0	0	0	1
45	66	9.9293024327184813	1	0	0	0	1
69	67	4.0828067702278021	1	0	0	0	1
68	63	11.460973543583632	1	0	0	0	1
48	69	3.2695198648920627	1	0	0	0	1
70	72	14.999945711431488	1	0	0	0	1
73	71	9.9293024327184813	1	0	0	0	1
75	78	4.0828067702278021	1	0	0	0	1
76	77	11.460973543583632	1	0	0	0	1
78	74	3.2695198648920627	1	0	0	0	1
59	70	14.999945711431488	1	0	0	0	1
58	79	9.9293024327184813	1	0	0	0	1
82	80	4.0828067702278021	1	0	0	0	1
81	76	11.460973543583632	1	0	0	0	1
61	82	3.2695198648920627	1	0	0	0	1
83	85	14.999945711431488	1	0	0	0	1
86	84	9.9293024327184813	1	0	0	0	1
88	91	4.0828067702278021	1	0	0	0	1
89	90	11.460973543583632	1	0	0	0	1
91	87	3.2695198648920627	1	0	0	0	1
72	83	14.999945711431488	1	0	0	0	1
71	92	9.9293024327184813	1	0	0	0	1
95	93	4.0828067702278021	1	0	0	0	1
94	89	11.460973543583632	1	0	0	0	1
74	95	3.2695198648920627	1	0	0	0	1
96	98	14.999945711431488	1	0	0	0	1
99	97	9.9293024327184813	1	0	0	0	1
101	104	4.0828067702278021	1	0	0	0	1
102	103	11.460973543583632	1	0	0	0	1
104	100	3.2695198648920627	1	0	0	0	1
85	96	14.999945711431488	1	0	0	0	1
84	105	9.9293024327184813	1	0	0	0	1
108	106	4.0828067702278021	1	0	0	0	1
107	102	11.460973543583632	1	0	0	0	1
87	108	3.2695198648920627	1	0	0	0	1
109	111	14.999945711431488	1	0	0	0	1
112	110	9.9293024327184813	1	0	0	0	1
114	117	4.0828067702278021	1	0	0	0	1
115	116	11.460973543583632	1	0	0	0	1
117	113	3.2695198648920627	1	0	0	0	1
98	109	14.999945711431488	1	0	0	0	1
97	118	9.9293024327184813	1	0	0	0	1
121	119	4.0828067702278021	1	0	0	0	1
120	115	11.460973543583632	1	0	0	0	1
100	121	3.2695198648920627	1	0	0	0	1
122	124	14.999945711431488	1	0	0	0	1
125	123	9.9293024327184813	1	0	0	0	1
127	130	4.0828067702278021	1	0	0	0	1
128	129	11.460973543583632	1	0	0	0	1
130	126	3.2695198648920627	1	0	0	0	1
111	122	14.999945711431488	1	0	0	0	1
110	131	9.9293024327184813	1	0	0	0	1
134	132	4.0828067702278021	1	0	0	0	1
133	128	11.460973543583632	1	0	0	0	1
113	134	3.2695198648920627	1	0	0	0	1
135	137	14.999945711431488	1	0	0	0	1
138	136	9.9293024327184813	1	0	0	0	1
140	143	4.0828067702278021	1	0	0	0	1
141	142	11.460973543583632	1	0	0	0	1
143	139	3.2695198648920627	1	0	0	0	1
124	135	14.999945711431488	1	0	0	0	1
123	144	9.9293024327184813	1	0	0	0	1
147	145	4.0828067702278021	1	0	0	0	1
146	141	11.460973543583632	1	0	0	0	1
126	147	3.2695198648920627	1	0	0	0	1
148	150	14.999945711431488	1	0	0	0	1
151	149	9.9293024327184813	1	0	0	0	1
153	156	4.0828067702278021	1	0	0	0	1
154	155	11.460973543583632	1	0	0	0	1
156	152	3.2695198648920627	1	0	0	0	1
137	148	14.999945711431488	1	0	0	0	1
136	157	9.9293024327184813	1	0	0	0	1
160	158	4.0828067702278021	1	0	0	0	1
159	154	11.460973543583632	1	0	0	0	1
139	160	3.2695198648920627	1	0	0	0	1
161	163	14.999945711431488	1	0	0	0	1
164	162	9.9293024327184813	1	0	0	0	1
166	169	4.0828067702278021	1	0	0	0	1
167	168	11.460973543583632	1	0	0	0	1
169	165	3.2695198648920627	1	0	0	0	1
150	161	14.999945711431488	1	0	0	0	1
149	170	9.9293024327184813	1	0	0	0	1
173	171	4.0828067702278021	1	0	0	0	1
172	167	11.460973543583632	1	0	0	0	1
152	173	3.2695198648920627	1	0	0	0	1
174	38	14.999945711431488	1	0	0	0	1
175	37	9.9293024327184813	1	0	0	0	1
176	179	4.0828067702278021	1	0	0	0	1
177	178	11.460973543583632	1	0	0	0	1
179	40	3.2695198648920627	1	0	0	0	1
163	174	14.999945711431488	1	0	0	0	1
162	180	9.9293024327184813	1	0	0	0	1
183	181	4.0828067702278021	1	0	0	0	1
182	177	11.460973543583632	1	0	0	0	1
165	183	3.2695198648920627	1	0	0	0	1
185	184	180	1	1	0	0	1
184	185	180	1	1	0	0	1
[NumHoles] = 0
[NumBlockLabels] = 20
-2.183735662268556	0.036035501058147457	5	-1	0	0	1	1	0
5.0911688245431446	8.8181630740194468	1	-1	0	60	1	1	0
-8.9924013701791043	5.3550646679196108	1	-1	0	330	1	1	0
12.218999999999999	3.2740999999999998	2	-1	0	0	0	1	0
23.25	0	3	-1	0	0	0	1	0
15.91362799	4.1187500000000004	4	-1	1	0	0	100	0
11.649584219999999	11.649584219999999	4	-1	3	0	0	-100	0
4.2640437679999996	15.91362799	4	-1	2	0	0	100	0
-4.2640437679999996	15.91362799	4	-1	1	0	0	-100	0
-11.649584219999999	11.649584219999999	4	-1	3	0	0	100	0
-15.91362799	4.2640437679999996	4	-1	2	0	0	-100	0
-15.91362799	-4.2640437679999996	4	-1	1	0	0	100	0
-11.649584219999999	-11.649584219999999	4	-1	3	0	0	-100	0
-4.2640437679999996	-15.91362799	4	-1	2	0	0	100	0
4.2640437679999996	-15.91362799	4	-1	1	0	0	-100	0
11.649584219999999	-11.649584219999999	4	-1	3	0	0	100	0
15.91362799	-4.2640437679999996	4	-1	2	0	0	-100	0
0	29.350000000000001	2	-1	0	0	0	1	0
-4.7376154339498697	-8.2057906383236467	1	-1	0	240	1	1	0
8.2506194119320497	-4.5185483641818029	1	-1	0	150	1	1	0
